/*--------------------------------*- C++ -*----------------------------------*\
| =========                 |                                                 |
| \\      /  F ield         | OpenFOAM: The Open Source CFD Toolbox           |
|  \\    /   O peration     | Version:  2.1.1                                 |
|   \\  /    A nd           | Web:      www.OpenFOAM.org                      |
|    \\/     M anipulation  |                                                 |
\*---------------------------------------------------------------------------*/
FoamFile
{
    version     2.0;
    format      ascii;
    class       volScalarField;
    location    "0";
    object      k;
}
// * * * * * * * * * * * * * * * * * * * * * * * * * * * * * * * * * * * * * //

dimensions      [0 2 -2 0 0 0 0];

internalField   uniform 1.18e2;

boundaryField
{
	inlet
	{
		type	fixedValue;	
		value	uniform 1.18e2;
	}

	outlet
	{
		type	zeroGradient;
	}

	wall
	{
        type            kqRWallFunction;
        value           uniform 1.18e2; 
	}

	heatedWall
	{
        type            kqRWallFunction;
	value		uniform 1.18e2; 
	}

	frontAndBack
	{
		type	empty;	
	}
}


// ************************************************************************* //
